Version 4
SHEET 1 1316 680
WIRE 208 -208 80 -208
WIRE 80 -192 80 -208
WIRE 208 -192 208 -208
WIRE 208 32 208 -112
WIRE 256 32 208 32
WIRE 208 80 208 32
WIRE 160 160 80 160
WIRE 80 176 80 160
WIRE 208 208 208 176
WIRE 256 208 208 208
WIRE 448 208 352 208
WIRE 256 240 240 240
WIRE 400 240 352 240
WIRE 240 256 240 240
WIRE 400 272 400 240
WIRE 448 272 400 272
WIRE 208 448 208 208
WIRE 160 528 96 528
WIRE 96 544 96 528
FLAG 240 256 0
FLAG 80 -112 0
FLAG 80 256 0
FLAG 320 32 0
FLAG 208 624 0
FLAG 96 624 0
SYMBOL ltline 304 224 R0
WINDOW 3 3 24 Top 2
SYMATTR Value RG58
SYMATTR InstName O1
SYMBOL LED 432 208 R0
SYMATTR InstName D1
SYMATTR Value NSPW500BS
SYMATTR Description Diode
SYMATTR Type diode
SYMBOL voltage 80 -208 R0
WINDOW 123 0 0 Left 0
WINDOW 39 0 0 Left 0
SYMATTR InstName V1
SYMATTR Value 12
SYMBOL voltage 80 160 M0
WINDOW 123 0 0 Left 0
WINDOW 39 24 124 Left 2
SYMATTR SpiceLine Rser=1.6
SYMATTR InstName V3
SYMATTR Value PULSE(0 12 1050n 20n 20n 200n 1m)
SYMBOL cap 320 16 R90
WINDOW 0 0 32 VBottom 2
WINDOW 3 32 32 VTop 2
SYMATTR InstName C1
SYMATTR Value 2.7nF
SYMATTR SpiceLine V=630 Irms=0 Rser=0 Lser=0 mfg="Murata" pn="GCM31A5C2J271JX01" type="C0G"
SYMBOL nmos 160 80 R0
SYMATTR InstName M2
SYMATTR Value BSC052N03LS
SYMBOL res 192 -208 R0
SYMATTR InstName R1
SYMATTR Value 1Meg
SYMBOL nmos 160 448 R0
SYMATTR InstName M3
SYMATTR Value BSC052N03LS
SYMBOL res 192 528 R0
SYMATTR InstName R2
SYMATTR Value 50
SYMBOL voltage 96 528 M0
WINDOW 123 0 0 Left 0
WINDOW 39 24 124 Left 2
SYMATTR SpiceLine Rser=1.6
SYMATTR InstName V4
SYMATTR Value PULSE(0 12 1250n 20n 20n 1u 1m)
TEXT 656 128 Left 2 !.model RG58 LTRA(len=3 R=32.81m L=262.5n C=93.5p)
TEXT 656 168 Left 2 !.tran 0 1500n 1u
