Version 4
SHEET 1 1732 1268
WIRE -768 64 -848 64
WIRE -528 64 -688 64
WIRE -848 144 -848 64
WIRE -848 304 -848 224
WIRE -528 304 -528 64
WIRE -416 384 -480 384
WIRE -208 384 -336 384
WIRE -928 496 -944 496
WIRE -816 496 -848 496
WIRE -528 496 -528 400
WIRE -528 496 -720 496
WIRE 48 496 -528 496
WIRE 576 496 144 496
WIRE 784 496 784 448
WIRE 784 496 656 496
WIRE 896 496 784 496
WIRE 48 528 -64 528
WIRE 240 528 144 528
WIRE -64 560 -64 528
WIRE -64 560 -528 560
WIRE 240 560 240 528
WIRE 896 560 240 560
WIRE -928 624 -944 624
WIRE -800 624 -800 544
WIRE -800 624 -848 624
WIRE -528 656 -528 560
WIRE -416 736 -480 736
WIRE -208 736 -336 736
WIRE -528 864 -528 752
FLAG -208 384 0
FLAG -848 304 0
FLAG -208 736 0
FLAG -944 624 0
FLAG -944 496 0
FLAG 784 384 0
FLAG -528 864 0
SYMBOL voltage -848 128 R0
WINDOW 123 0 0 Left 0
WINDOW 39 0 0 Left 0
SYMATTR InstName V1
SYMATTR Value 12
SYMBOL voltage -432 384 R270
WINDOW 0 -63 7 VTop 2
WINDOW 3 72 159 VBottom 2
WINDOW 123 0 0 Left 0
WINDOW 39 0 0 Left 0
SYMATTR InstName V2
SYMATTR Value PULSE(0 12 0 20n 20n 1u 1.6u 5)
SYMBOL nmos -480 304 M0
SYMATTR InstName M1
SYMBOL res -672 48 R90
WINDOW 0 0 56 VBottom 2
WINDOW 3 32 56 VTop 2
SYMATTR InstName R1
SYMATTR Value 1.2k
SYMBOL nmos -480 656 M0
SYMATTR InstName M2
SYMBOL voltage -432 736 R270
WINDOW 0 -55 7 VRight 2
WINDOW 3 56 -42 VRight 2
WINDOW 123 0 0 Left 0
WINDOW 39 0 0 Left 0
SYMATTR InstName V3
SYMATTR Value PULSE(0 12 1.05u 20n 20n 150n 1.6u 5)
SYMBOL nmos -720 544 M270
SYMATTR InstName M3
SYMBOL res -944 512 R270
WINDOW 0 32 56 VTop 2
WINDOW 3 0 56 VBottom 2
SYMATTR InstName R2
SYMATTR Value 50
SYMBOL voltage -832 624 R90
WINDOW 0 -45 8 VRight 2
WINDOW 3 56 -54 VRight 2
WINDOW 123 0 0 Left 0
WINDOW 39 0 0 Left 0
SYMATTR InstName V4
SYMATTR Value PULSE(0 12 1.3u 20n 20n 150n 1.6u 5)
SYMBOL LED 880 496 R0
SYMATTR InstName D1
SYMATTR Value QTLP690C
SYMBOL cap 768 384 R0
SYMATTR InstName C1
SYMATTR Value .1n
SYMBOL res 672 480 R90
WINDOW 0 0 56 VBottom 2
WINDOW 3 32 56 VTop 2
SYMATTR InstName R3
SYMATTR Value 100
SYMBOL ltline 96 512 R0
WINDOW 3 3 24 Top 2
SYMATTR Value RG58
SYMATTR InstName O1
TEXT -1008 184 Left 2 !.tran 0 2u 1u
TEXT -160 120 Left 2 !.model RG58 LTRA(len={DEV} R=32.81m L=262.5n C=93.5p)
TEXT 736 152 Left 2 !.step param DEV .5 3 .5
TEXT 776 208 Left 2 !;.param DEV
