Version 4
SHEET 1 880 680
WIRE 240 0 -32 0
WIRE 240 112 240 0
WIRE -32 176 -32 0
WIRE 240 224 240 192
WIRE 432 224 240 224
WIRE 496 224 432 224
WIRE 240 256 240 224
WIRE 432 272 432 224
WIRE -32 480 -32 256
WIRE 240 480 240 336
WIRE 432 480 432 336
FLAG -32 480 0
FLAG 240 480 0
FLAG 496 224 Output
FLAG 432 480 0
SYMBOL res 224 96 R0
SYMATTR InstName R1
SYMATTR Value 10k
SYMBOL res 224 240 R0
SYMATTR InstName R2
SYMATTR Value 20k
SYMBOL voltage -32 160 R0
WINDOW 123 0 0 Left 0
WINDOW 39 0 0 Left 0
SYMATTR InstName V1
SYMATTR Value 10
SYMBOL cap 416 272 R0
SYMATTR InstName C1
SYMATTR Value 10n
TEXT 16 -72 Left 2 ;Voltage Divider
TEXT -66 504 Left 2 !.tran 1 startup
